[General]
network = mmclqueueingsimulation.MMCLNetwork

# total simulation time and how much of it to throw away as warm-up
sim-time-limit = 500000s
warmup-period = 50000s

# results live here
result-dir = results

# fixed service rate mu = 1, so mean service time = 1s
**.queueingSystem.meanServiceTime = 1s

# total system capacity (L). includes customers in service and in queue.
**.queueingSystem.maxSystemCapacity = 8


# ---- c = 2 sweep over a few arrival rates ----
# rho per server runs from 0.2 up to 1.2 across these lambdas
[Config MMC2Sweep]
description = "M/M/2/8 across a range of arrival rates"
**.queueingSystem.numberOfServers = 2
**.arrivalEventGenerator.meanInterArrivalTime = ${meanIaT = 2.5s, 1.25s, 0.83333333s, 0.625s, 0.5s, 0.41666667s}
# matching lambdas: 0.4, 0.8, 1.2, 1.6, 2.0, 2.4


# ---- c = 4 sweep ----
# rho per server runs from 0.25 up to 1.25 across these lambdas
[Config MMC4Sweep]
description = "M/M/4/8 across a range of arrival rates"
**.queueingSystem.numberOfServers = 4
**.arrivalEventGenerator.meanInterArrivalTime = ${meanIaT = 1.0s, 0.5s, 0.33333333s, 0.25s, 0.2s}
# matching lambdas: 1.0, 2.0, 3.0, 4.0, 5.0


# ---- single-server sanity check that mirrors an M/M/1/5 ----
[Config SingleServerSanity]
description = "c=1, L=5 sanity check, comparable to M/M/1/5 analytical"
**.queueingSystem.numberOfServers = 1
**.queueingSystem.maxSystemCapacity = 5
**.arrivalEventGenerator.meanInterArrivalTime = 2s
